#======================================================================

# CRYSTAL DATA

#----------------------------------------------------------------------

data_preELM-11


_chemical_name_common                  'preELM-11'
_cell_length_a                         16.43100
_cell_length_b                         11.08500
_cell_length_c                         14.23000
_cell_angle_alpha                      90
_cell_angle_beta                       115.40700
_cell_angle_gamma                      90
_space_group_name_H-M_alt              'C 2/c'
_space_group_IT_number                 15

loop_
_space_group_symop_operation_xyz
   'x, y, z'
   '-x, -y, -z'
   '-x, y, -z+1/2'
   'x, -y, z+1/2'
   'x+1/2, y+1/2, z'
   '-x+1/2, -y+1/2, -z'
   '-x+1/2, y+1/2, -z+1/2'
   'x+1/2, -y+1/2, z+1/2'

loop_
   _atom_site_label
   _atom_site_occupancy
   _atom_site_fract_x
   _atom_site_fract_y
   _atom_site_fract_z
   _atom_site_adp_type
   _atom_site_B_iso_or_equiv
   _atom_site_type_symbol
   Cu0        1.0     0.000000      0.402705      0.250000     Biso  1.000000 Cu
   B1         1.0     0.153965      0.414438      0.114784     Biso  1.000000 B
   H2         1.0     0.036937      0.210793      0.513115     Biso  1.000000 H
   H3         1.0     0.086248      0.462045      0.439883     Biso  1.000000 H
   H4         1.0     0.091197      0.173682      0.019169     Biso  1.000000 H
   H5         1.0     0.124337      0.408779      0.744183     Biso  1.000000 H
   H6         1.0     0.130696      0.186294      0.747073     Biso  1.000000 H
   H7         1.0     0.138260      0.213033      0.296311     Biso  1.000000 H
   H8         1.0     0.145628      0.009061      0.802442     Biso  1.000000 H
   H9         1.0     0.164371      0.414696      0.409266     Biso  1.000000 H
   H10        1.0     0.196563      0.245302      0.559717     Biso  1.000000 H
   H11        1.0     0.247589      0.122027      0.060511     Biso  1.000000 H
   C12        1.0     0.047437      0.013826      0.512959     Biso  1.000000 C
   C13        1.0     0.069691      0.355496      0.747669     Biso  1.000000 C
   C14        1.0     0.072013      0.230248      0.748106     Biso  1.000000 C
   C15        1.0     0.077585      0.159846      0.276574     Biso  1.000000 C
   C16        1.0     0.080271      0.132769      0.524328     Biso  1.000000 C
   C17        1.0     0.080389      0.034589      0.277849     Biso  1.000000 C
   C18        1.0     0.109982      0.078942      0.026745     Biso  1.000000 C
   C19        1.0     0.171018      0.153271      0.550008     Biso  1.000000 C
   C20        1.0     0.199247      0.050508      0.050885     Biso  1.000000 C
   C21        1.0     0.000000      0.031038      0.750000     Biso  1.000000 C
   C22        1.0     0.000000      0.164522      0.750000     Biso  1.000000 C
   N23        1.0     0.230448      0.063624      0.563443     Biso  1.000000 N
   N24        1.0     0.000000      0.221423      0.250000     Biso  1.000000 N
   N25        1.0     0.000000      0.417062      0.750000     Biso  1.000000 N
   O26        1.0     0.098360      0.399502      0.398291     Biso  1.000000 O
   F27        1.0     0.079929      0.405268      0.013602     Biso  1.000000 F
   F28        1.0     0.120853      0.391052      0.190540     Biso  1.000000 F
   F29        1.0     0.190871      0.467566      0.629547     Biso  1.000000 F
   F30        1.0     0.219954      0.327442      0.124798     Biso  1.000000 F
