#======================================================================

# CRYSTAL DATA

#----------------------------------------------------------------------

data_subphase


_chemical_name_common                  'subphase'
_cell_length_a                         7.45100
_cell_length_b                         8.81800
_cell_length_c                         10.06900
_cell_angle_alpha                      105.33800
_cell_angle_beta                       99.51200
_cell_angle_gamma                      107.71100
_space_group_name_H-M_alt              'P 1'
_space_group_IT_number                 1

loop_
_space_group_symop_operation_xyz
   'x, y, z'

loop_
   _atom_site_label
   _atom_site_occupancy
   _atom_site_fract_x
   _atom_site_fract_y
   _atom_site_fract_z
   _atom_site_adp_type
   _atom_site_B_iso_or_equiv
   _atom_site_type_symbol
   Cu1        1.0     0.000000      0.000000      0.000000     Biso  1.000000 Cu
   B2         1.0     0.384626      0.125846      0.814990     Biso  1.000000 B
   B3         1.0     0.619844      0.883572      0.193627     Biso  1.000000 B
   H4         1.0     0.281386      0.902707      0.070329     Biso  1.000000 H
   H5         1.0     0.105842      0.788216      0.114691     Biso  1.000000 H
   H6         1.0     0.717950      0.099831      0.934011     Biso  1.000000 H
   H7         1.0     0.893556      0.218913      0.891864     Biso  1.000000 H
   H8         1.0     0.896880      0.969278      0.699059     Biso  1.000000 H
   H9         1.0     0.732178      0.642140      0.924288     Biso  1.000000 H
   H10        1.0     0.664715      0.762865      0.473533     Biso  1.000000 H
   H11        1.0     0.507446      0.413707      0.706649     Biso  1.000000 H
   H12        1.0     0.265932      0.267817      0.535040     Biso  1.000000 H
   H13        1.0     0.538880      0.562722      0.289587     Biso  1.000000 H
   H14        1.0     0.315908      0.335057      0.072294     Biso  1.000000 H
   H15        1.0     0.049089      0.054977      0.306094     Biso  1.000000 H
   H16        1.0     0.692016      0.127298      0.620700     Biso  1.000000 H
   H17        1.0     0.276738      0.907050      0.396236     Biso  1.000000 H
   H18        1.0     0.730162      0.246751      0.428828     Biso  1.000000 H
   H19        1.0     0.236450      0.789720      0.589229     Biso  1.000000 H
   H20        1.0     0.230547      0.666501      0.734405     Biso  1.000000 H
   H21        1.0     0.807331      0.329710      0.268368     Biso  1.000000 H
   H22        1.0     0.175549      0.524802      0.911473     Biso  1.000000 H
   H23        1.0     0.858256      0.470769      0.091121     Biso  1.000000 H
   C24        1.0     0.803757      0.845901      0.695717     Biso  1.000000 C
   C25        1.0     0.714511      0.662110      0.821717     Biso  1.000000 C
   C26        1.0     0.674944      0.727016      0.569101     Biso  1.000000 C
   C27        1.0     0.585717      0.535430      0.698516     Biso  1.000000 C
   C28        1.0     0.561963      0.566963      0.568337     Biso  1.000000 C
   C29        1.0     0.426054      0.436381      0.434643     Biso  1.000000 C
   C30        1.0     0.283903      0.290019      0.436118     Biso  1.000000 C
   C31        1.0     0.434716      0.453255      0.300912     Biso  1.000000 C
   C32        1.0     0.161955      0.168540      0.308145     Biso  1.000000 C
   C33        1.0     0.308840      0.326092      0.177011     Biso  1.000000 C
   C34        1.0     0.812073      0.245435      0.641431     Biso  1.000000 C
   C35        1.0     0.171891      0.779955      0.372118     Biso  1.000000 C
   C36        1.0     0.833786      0.315017      0.533495     Biso  1.000000 C
   C37        1.0     0.149408      0.711768      0.480819     Biso  1.000000 C
   C38        1.0     0.986527      0.469533      0.561705     Biso  1.000000 C
   C39        1.0     0.015244      0.546812      0.448769     Biso  1.000000 C
   C40        1.0     0.109686      0.545994      0.701809     Biso  1.000000 C
   C41        1.0     0.911094      0.459148      0.304462     Biso  1.000000 C
   C42        1.0     0.079278      0.466480      0.803229     Biso  1.000000 C
   C43        1.0     0.940271      0.538081      0.202594     Biso  1.000000 C
   N44        1.0     0.175346      0.185096      0.180310     Biso  1.000000 N
   N45        1.0     0.821981      0.815215      0.820555     Biso  1.000000 N
   N46        1.0     0.932854      0.317756      0.774817     Biso  1.000000 N
   N47        1.0     0.068263      0.696605      0.234558     Biso  1.000000 N
   O48        1.0     0.138467      0.844151      0.038538     Biso  1.000000 O
   O49        1.0     0.860602      0.157063      0.964036     Biso  1.000000 O
   F50        1.0     0.349403      0.119169      0.670813     Biso  1.000000 F
   F51        1.0     0.208012      0.111255      0.858042     Biso  1.000000 F
   F52        1.0     0.532515      0.281336      0.904472     Biso  1.000000 F
   F53        1.0     0.441573      0.987045      0.825459     Biso  1.000000 F
   F54        1.0     0.474579      0.719908      0.132204     Biso  1.000000 F
   F55        1.0     0.774430      0.889384      0.124910     Biso  1.000000 F
   F56        1.0     0.698331      0.925292      0.342900     Biso  1.000000 F
   F57        1.0     0.540838      0.007354      0.171347     Biso  1.000000 F
